Circuit: * C:\Users\Ankit Negi\OneDrive\Documents\hustle\Analog IC Design\Inverter\inverter.asc

Instance "m2": Length shorter than recommended for a level 1 MOSFET.
Instance "m2": Width narrower than recommended for a level 1 MOSFET.
Instance "m1": Length shorter than recommended for a level 1 MOSFET.
Instance "m1": Width narrower than recommended for a level 1 MOSFET.
Direct Newton iteration for .op point succeeded.

Date: Tue Oct 29 16:36:27 2024
Total elapsed time: 0.105 seconds.

tnom = 27
temp = 27
method = modified trap
totiter = 2269
traniter = 2261
tranpoints = 1093
accept = 1082
rejected = 11
matrix size = 9
fillins = 0
solver = Normal
Matrix Compiler1: 422 bytes object code size  0.2/0.1/[0.0]
Matrix Compiler2: 593 bytes object code size  0.1/0.1/[0.0]

